PV_Scenarios/PV_combined/scenario_64_combined/PV_combined100per.txt
New PVSystem.PV_1 phases=1 bus1=G2000SK7800_N274150_sec_2.2 kV=0.24 kVA=4.0494 irradiance=1 Pmpp=3.3745 %cutin=0.1 %cutout=0.1
New PVSystem.PV_2 phases=1 bus1=G2000SN8800_N274200_sec_3.3 kV=0.24 kVA=5.04 irradiance=1 Pmpp=4.2 %cutin=0.1 %cutout=0.1
New PVSystem.PV_3 phases=1 bus1=G2000XE9500_N283544_sec_6.3 kV=0.24 kVA=0.36 irradiance=1 Pmpp=0.3 %cutin=0.1 %cutout=0.1
New PVSystem.PV_4 phases=1 bus1=G2000XE9500_N283544_sec_7.3 kV=0.24 kVA=5.64 irradiance=1 Pmpp=4.7 %cutin=0.1 %cutout=0.1
New PVSystem.PV_5 phases=1 bus1=G2000XK5800_N283764_sec_3.3 kV=0.24 kVA=1.2 irradiance=1 Pmpp=1 %cutin=0.1 %cutout=0.1
New PVSystem.PV_6 phases=1 bus1=G2001RH4100_N274394_sec_6.2 kV=0.24 kVA=11.88 irradiance=1 Pmpp=9.9 %cutin=0.1 %cutout=0.1
New PVSystem.PV_7 phases=1 bus1=G2001RL0800_N274521_sec_4.2 kV=0.24 kVA=14.88 irradiance=1 Pmpp=12.4 %cutin=0.1 %cutout=0.1
New PVSystem.PV_8 phases=1 bus1=G2001SB8200_N274258_sec_1.3 kV=0.24 kVA=3.84 irradiance=1 Pmpp=3.2 %cutin=0.1 %cutout=0.1
New PVSystem.PV_9 phases=1 bus1=G2001SH1900_N1347089_sec_3.1 kV=0.24 kVA=9.72 irradiance=1 Pmpp=8.1 %cutin=0.1 %cutout=0.1
New PVSystem.PV_10 phases=1 bus1=G2001SI3300_N274448_sec_2.1 kV=0.24 kVA=7.56 irradiance=1 Pmpp=6.3 %cutin=0.1 %cutout=0.1
New PVSystem.PV_11 phases=1 bus1=G2001UK8700_N284232_sec_3.2 kV=0.24 kVA=10.8 irradiance=1 Pmpp=9 %cutin=0.1 %cutout=0.1
New PVSystem.PV_12 phases=1 bus1=G2001VD4400_N284006_sec_9.3 kV=0.24 kVA=5.4303 irradiance=1 Pmpp=4.5252 %cutin=0.1 %cutout=0.1
New PVSystem.PV_13 phases=1 bus1=G2001VH9900_N284172_sec_3.3 kV=0.24 kVA=1.56 irradiance=1 Pmpp=1.3 %cutin=0.1 %cutout=0.1
New PVSystem.PV_14 phases=1 bus1=G2001VK4000_N284221_sec_4.2 kV=0.24 kVA=8.28 irradiance=1 Pmpp=6.9 %cutin=0.1 %cutout=0.1
New PVSystem.PV_15 phases=1 bus1=G2001WC7300_N283986_sec_3.3 kV=0.24 kVA=4.9587 irradiance=1 Pmpp=4.1322 %cutin=0.1 %cutout=0.1
New PVSystem.PV_16 phases=1 bus1=G2001WG9900_N284129_sec_1.3 kV=0.24 kVA=4.92 irradiance=1 Pmpp=4.1 %cutin=0.1 %cutout=0.1
New PVSystem.PV_17 phases=1 bus1=G2001WL3500_N284250_sec_2.2 kV=0.24 kVA=4.6038 irradiance=1 Pmpp=3.8365 %cutin=0.1 %cutout=0.1
New PVSystem.PV_18 phases=1 bus1=G2002AF2300_N284383_sec_2.1 kV=0.24 kVA=7.8 irradiance=1 Pmpp=6.5 %cutin=0.1 %cutout=0.1
New PVSystem.PV_19 phases=1 bus1=G2100AG2100_N283585_sec_7.3 kV=0.24 kVA=2.64 irradiance=1 Pmpp=2.2 %cutin=0.1 %cutout=0.1
New PVSystem.PV_20 phases=1 bus1=G2100AG8700_N283594_sec_3.3 kV=0.24 kVA=3.24 irradiance=1 Pmpp=2.7 %cutin=0.1 %cutout=0.1
New PVSystem.PV_21 phases=1 bus1=G2100AH8200_N283618_sec_4.3 kV=0.24 kVA=5.52 irradiance=1 Pmpp=4.6 %cutin=0.1 %cutout=0.1
New PVSystem.PV_22 phases=1 bus1=G2100BJ7400_N283728_sec_6.2 kV=0.24 kVA=5.88 irradiance=1 Pmpp=4.9 %cutin=0.1 %cutout=0.1
New PVSystem.PV_23 phases=1 bus1=G2100BP7000_N283874_sec_5.3 kV=0.24 kVA=3.96 irradiance=1 Pmpp=3.3 %cutin=0.1 %cutout=0.1
New PVSystem.PV_24 phases=1 bus1=G2100CG0300_N283590_sec_6.3 kV=0.24 kVA=3 irradiance=1 Pmpp=2.5 %cutin=0.1 %cutout=0.1
New PVSystem.PV_25 phases=1 bus1=G2100CI1500_N283687_sec_5.2 kV=0.24 kVA=6.12 irradiance=1 Pmpp=5.1 %cutin=0.1 %cutout=0.1
New PVSystem.PV_26 phases=1 bus1=G2100CK4000_N283780_sec_1.2 kV=0.24 kVA=4.32 irradiance=1 Pmpp=3.6 %cutin=0.1 %cutout=0.1
New PVSystem.PV_27 phases=1 bus1=G2100DG1300_N283601_sec_16.3 kV=0.24 kVA=2.76 irradiance=1 Pmpp=2.3 %cutin=0.1 %cutout=0.1
New PVSystem.PV_28 phases=1 bus1=G2100DG6300_N283589_sec_7.3 kV=0.24 kVA=2.16 irradiance=1 Pmpp=1.8 %cutin=0.1 %cutout=0.1
New PVSystem.PV_29 phases=1 bus1=G2100DH9500_N292300_sec_3.3 kV=0.24 kVA=3.96 irradiance=1 Pmpp=3.3 %cutin=0.1 %cutout=0.1
New PVSystem.PV_30 phases=1 bus1=G2100DL9800_N283744_sec_3.2 kV=0.24 kVA=11.04 irradiance=1 Pmpp=9.2 %cutin=0.1 %cutout=0.1
New PVSystem.PV_31 phases=1 bus1=G2100DN3000_N283838_sec_13.3 kV=0.24 kVA=1.32 irradiance=1 Pmpp=1.1 %cutin=0.1 %cutout=0.1
New PVSystem.PV_32 phases=1 bus1=G2100DO7000_N283865_sec_1.3 kV=0.24 kVA=0.96 irradiance=1 Pmpp=0.8 %cutin=0.1 %cutout=0.1
New PVSystem.PV_33 phases=1 bus1=G2100EK1100_N292334_sec_1.2 kV=0.24 kVA=10.6319 irradiance=1 Pmpp=8.86 %cutin=0.1 %cutout=0.1
New PVSystem.PV_34 phases=1 bus1=G2100EK8800_N292347_sec_3.2 kV=0.24 kVA=11.16 irradiance=1 Pmpp=9.3 %cutin=0.1 %cutout=0.1
New PVSystem.PV_35 phases=1 bus1=G2100EM6500_N292425_sec_3.3 kV=0.24 kVA=2.52 irradiance=1 Pmpp=2.1 %cutin=0.1 %cutout=0.1
New PVSystem.PV_36 phases=1 bus1=G2100EM6500_N292425_sec_5.3 kV=0.24 kVA=6.12 irradiance=1 Pmpp=5.1 %cutin=0.1 %cutout=0.1
New PVSystem.PV_37 phases=1 bus1=G2100EN2200_N292457_sec_9.3 kV=0.24 kVA=2.88 irradiance=1 Pmpp=2.4 %cutin=0.1 %cutout=0.1
New PVSystem.PV_38 phases=1 bus1=G2100EN2200_N292457_sec_37.3 kV=0.24 kVA=0.36 irradiance=1 Pmpp=0.3 %cutin=0.1 %cutout=0.1
New PVSystem.PV_39 phases=1 bus1=G2100EN8600_N292479_sec_9.3 kV=0.24 kVA=2.04 irradiance=1 Pmpp=1.7 %cutin=0.1 %cutout=0.1
New PVSystem.PV_40 phases=3 conn = delta bus1=G2100FE5400_N292228_sec_1.1.2.3 kV=0.48 kVA=42.96 irradiance=1 Pmpp=35.8 %cutin=0.1 %cutout=0.1
New PVSystem.PV_41 phases=3 conn = delta bus1=G2100FJ4400_N292396_sec_3.1.2.3 kV=0.48 kVA=16.2 irradiance=1 Pmpp=13.5 %cutin=0.1 %cutout=0.1
New PVSystem.PV_42 phases=1 bus1=G2100GN0400_N292471_sec_8.1 kV=0.24 kVA=3.24 irradiance=1 Pmpp=2.7 %cutin=0.1 %cutout=0.1
New PVSystem.PV_43 phases=3 conn = delta bus1=G2100GO7200_N292517_sec_11.1.2.3 kV=0.48 kVA=6.12 irradiance=1 Pmpp=5.1 %cutin=0.1 %cutout=0.1
New PVSystem.PV_44 phases=1 bus1=G2100HM3200_N292420_sec_13.3 kV=0.24 kVA=2.88 irradiance=1 Pmpp=2.4 %cutin=0.1 %cutout=0.1
New PVSystem.PV_45 phases=1 bus1=G2100HN5600_N292453_sec_58.3 kV=0.24 kVA=2.88 irradiance=1 Pmpp=2.4 %cutin=0.1 %cutout=0.1
New PVSystem.PV_46 phases=1 bus1=G2100NN4200_N300548_sec_4.3 kV=0.24 kVA=3.72 irradiance=1 Pmpp=3.1 %cutin=0.1 %cutout=0.1
New PVSystem.PV_47 phases=1 bus1=G2100QM7500_N300522_sec_6.3 kV=0.24 kVA=4.32 irradiance=1 Pmpp=3.6 %cutin=0.1 %cutout=0.1
New PVSystem.PV_48 phases=1 bus1=G2100QM7500_N300522_sec_7.3 kV=0.24 kVA=3.24 irradiance=1 Pmpp=2.7 %cutin=0.1 %cutout=0.1
New PVSystem.PV_49 phases=1 bus1=G2100QN1500_N300555_sec_1.2 kV=0.24 kVA=1.92 irradiance=1 Pmpp=1.6 %cutin=0.1 %cutout=0.1
New PVSystem.PV_50 phases=1 bus1=G2100QP9600_N300587_sec_4.2 kV=0.24 kVA=3.72 irradiance=1 Pmpp=3.1 %cutin=0.1 %cutout=0.1
New PVSystem.PV_51 phases=1 bus1=G2100RN1800_N300557_sec_1.3 kV=0.24 kVA=4.92 irradiance=1 Pmpp=4.1 %cutin=0.1 %cutout=0.1
New PVSystem.PV_52 phases=1 bus1=G2100SM1100_N312351_sec_1.3 kV=0.24 kVA=0 irradiance=1 Pmpp=0 %cutin=0.1 %cutout=0.1
New PVSystem.PV_53 phases=1 bus1=G2101AH4300_N284128_sec_1.3 kV=0.24 kVA=4.2 irradiance=1 Pmpp=3.5 %cutin=0.1 %cutout=0.1
New PVSystem.PV_54 phases=1 bus1=G2101CM7500_N284275_sec_1.1 kV=0.24 kVA=5.76 irradiance=1 Pmpp=4.8 %cutin=0.1 %cutout=0.1
New PVSystem.PV_55 phases=1 bus1=G2101DB9200_N283929_sec_1.1 kV=0.24 kVA=5.16 irradiance=1 Pmpp=4.3 %cutin=0.1 %cutout=0.1
New PVSystem.PV_56 phases=3 conn = delta bus1=G2101EA3600_N292539_sec_1.1.2.3 kV=0.48 kVA=109.015 irradiance=1 Pmpp=90.8458 %cutin=0.1 %cutout=0.1
New PVSystem.PV_57 phases=1 bus1=G2101FC8400_N292612_sec_10.2 kV=0.24 kVA=6.72 irradiance=1 Pmpp=5.6 %cutin=0.1 %cutout=0.1
New PVSystem.PV_58 phases=3 conn = delta bus1=G2101GA6800_N292554_sec_7.1.2.3 kV=0.48 kVA=44.6173 irradiance=1 Pmpp=37.1811 %cutin=0.1 %cutout=0.1
New PVSystem.PV_59 phases=1 bus1=G2101GC9700_N292633_sec_16.1 kV=0.24 kVA=3.36 irradiance=1 Pmpp=2.8 %cutin=0.1 %cutout=0.1
New PVSystem.PV_60 phases=1 bus1=G2101GD9500_N292651_sec_5.1 kV=0.24 kVA=2.76 irradiance=1 Pmpp=2.3 %cutin=0.1 %cutout=0.1
New PVSystem.PV_61 phases=3 conn = delta bus1=G2101GE7600_N292706_sec_2.1.2.3 kV=0.48 kVA=59.04 irradiance=1 Pmpp=49.2 %cutin=0.1 %cutout=0.1
New PVSystem.PV_62 phases=3 conn = delta bus1=G2101HA1300_N292535_sec_1.1.2.3 kV=0.48 kVA=0.84 irradiance=1 Pmpp=0.7 %cutin=0.1 %cutout=0.1
New PVSystem.PV_63 phases=1 bus1=G2101HB7500_N292585_sec_4.1 kV=0.24 kVA=4.56 irradiance=1 Pmpp=3.8 %cutin=0.1 %cutout=0.1
New PVSystem.PV_64 phases=1 bus1=G2101HD2900_N292658_sec_8.1 kV=0.24 kVA=3.72 irradiance=1 Pmpp=3.1 %cutin=0.1 %cutout=0.1
New PVSystem.PV_65 phases=3 conn = delta bus1=G2101JA6700_N1321243_sec_8.1.2.3 kV=0.48 kVA=12 irradiance=1 Pmpp=10 %cutin=0.1 %cutout=0.1
New PVSystem.PV_66 phases=3 conn = delta bus1=G2101JA6700_N1321243_sec_9.1.2.3 kV=0.48 kVA=12 irradiance=1 Pmpp=10 %cutin=0.1 %cutout=0.1
New PVSystem.PV_67 phases=3 conn = delta bus1=G2101JA6700_N1321243_sec_13.1.2.3 kV=0.48 kVA=12 irradiance=1 Pmpp=10 %cutin=0.1 %cutout=0.1
New PVSystem.PV_68 phases=1 bus1=G2101JA8400_N300634_sec_1.1 kV=0.24 kVA=12 irradiance=1 Pmpp=10 %cutin=0.1 %cutout=0.1
New PVSystem.PV_69 phases=1 bus1=G2101JH1600_N292721_sec_2.1 kV=0.24 kVA=7.08 irradiance=1 Pmpp=5.9 %cutin=0.1 %cutout=0.1
New PVSystem.PV_70 phases=1 bus1=G2101KA0900_N300672_sec_18.1 kV=0.24 kVA=3.84 irradiance=1 Pmpp=3.2 %cutin=0.1 %cutout=0.1
New PVSystem.PV_71 phases=1 bus1=G2101KA3900_N300679_sec_7.1 kV=0.24 kVA=3 irradiance=1 Pmpp=2.5 %cutin=0.1 %cutout=0.1
New PVSystem.PV_72 phases=1 bus1=G2101KA3900_N300679_sec_11.1 kV=0.24 kVA=4.32 irradiance=1 Pmpp=3.6 %cutin=0.1 %cutout=0.1
New PVSystem.PV_73 phases=1 bus1=G2101SB1800_N312602_sec_7.1 kV=0.24 kVA=3.161 irradiance=1 Pmpp=2.6342 %cutin=0.1 %cutout=0.1
New PVSystem.PV_74 phases=1 bus1=G2101TB0900_N312595_sec_1.1 kV=0.24 kVA=9.36 irradiance=1 Pmpp=7.8 %cutin=0.1 %cutout=0.1
New PVSystem.PV_75 phases=1 bus1=G2101TB0900_N312595_sec_3.1 kV=0.24 kVA=0.6 irradiance=1 Pmpp=0.5 %cutin=0.1 %cutout=0.1
New PVSystem.PV_76 phases=1 bus1=G2101TB9300_N312558_sec_1.2 kV=0.24 kVA=4.68 irradiance=1 Pmpp=3.9 %cutin=0.1 %cutout=0.1
New PVSystem.PV_77 phases=1 bus1=G2102AC6800_N284336_sec_1.1 kV=0.24 kVA=9.48 irradiance=1 Pmpp=7.9 %cutin=0.1 %cutout=0.1
New PVSystem.PV_78 phases=1 bus1=G2102DG9500_N284426_sec_1.1 kV=0.24 kVA=9.594 irradiance=1 Pmpp=7.995 %cutin=0.1 %cutout=0.1
New PVSystem.PV_79 phases=1 bus1=G2000VJ0200_N283716_sec_1.2 kV=0.24 kVA=9.96 irradiance=1 Pmpp=8.3 %cutin=0.1 %cutout=0.1
New PVSystem.PV_80 phases=1 bus1=G2000XL9500_N283792_sec_1.1 kV=0.24 kVA=3.48 irradiance=1 Pmpp=2.9 %cutin=0.1 %cutout=0.1
New PVSystem.PV_81 phases=1 bus1=G2000XL9500_N283792_sec_3.1 kV=0.24 kVA=7.68 irradiance=1 Pmpp=6.4 %cutin=0.1 %cutout=0.1
New PVSystem.PV_82 phases=1 bus1=G2001SL6300_N274540_sec_1.2 kV=0.24 kVA=15.24 irradiance=1 Pmpp=12.7 %cutin=0.1 %cutout=0.1
New PVSystem.PV_83 phases=1 bus1=G2001TC6700_N274291_sec_3.3 kV=0.24 kVA=7.56 irradiance=1 Pmpp=6.3 %cutin=0.1 %cutout=0.1
New PVSystem.PV_84 phases=1 bus1=G2001TC6700_N274291_sec_5.3 kV=0.24 kVA=4.4917 irradiance=1 Pmpp=3.7431 %cutin=0.1 %cutout=0.1
New PVSystem.PV_85 phases=1 bus1=G2001UB2100_N283965_sec_2.3 kV=0.24 kVA=3.12 irradiance=1 Pmpp=2.6 %cutin=0.1 %cutout=0.1
New PVSystem.PV_86 phases=1 bus1=G2001UC6800_N284008_sec_8.3 kV=0.24 kVA=2.4 irradiance=1 Pmpp=2 %cutin=0.1 %cutout=0.1
New PVSystem.PV_87 phases=1 bus1=G2001UD4700_N284020_sec_1.3 kV=0.24 kVA=7.92 irradiance=1 Pmpp=6.6 %cutin=0.1 %cutout=0.1
New PVSystem.PV_88 phases=1 bus1=G2001VD7200_N283953_sec_2.3 kV=0.24 kVA=3.96 irradiance=1 Pmpp=3.3 %cutin=0.1 %cutout=0.1
New PVSystem.PV_89 phases=1 bus1=G2001XB6700_N283943_sec_1.3 kV=0.24 kVA=1.08 irradiance=1 Pmpp=0.9 %cutin=0.1 %cutout=0.1
New PVSystem.PV_90 phases=1 bus1=G2001XE7600_N284065_sec_1.1 kV=0.24 kVA=7.92 irradiance=1 Pmpp=6.6 %cutin=0.1 %cutout=0.1
New PVSystem.PV_91 phases=1 bus1=G2100AG2100_N283585_sec_5.3 kV=0.24 kVA=2.28 irradiance=1 Pmpp=1.9 %cutin=0.1 %cutout=0.1
New PVSystem.PV_92 phases=1 bus1=G2100BJ2200_N283714_sec_3.2 kV=0.24 kVA=5.4 irradiance=1 Pmpp=4.5 %cutin=0.1 %cutout=0.1
New PVSystem.PV_93 phases=1 bus1=G2100CN4900_N283858_sec_6.3 kV=0.24 kVA=1.8 irradiance=1 Pmpp=1.5 %cutin=0.1 %cutout=0.1
New PVSystem.PV_94 phases=1 bus1=G2100DJ0500_N283740_sec_6.2 kV=0.24 kVA=6.2199 irradiance=1 Pmpp=5.1833 %cutin=0.1 %cutout=0.1
New PVSystem.PV_95 phases=1 bus1=G2100DL9800_N283744_sec_5.2 kV=0.24 kVA=8.4 irradiance=1 Pmpp=7 %cutin=0.1 %cutout=0.1
New PVSystem.PV_96 phases=1 bus1=G2100DN3000_N283838_sec_1.3 kV=0.24 kVA=1.08 irradiance=1 Pmpp=0.9 %cutin=0.1 %cutout=0.1
New PVSystem.PV_97 phases=1 bus1=G2100DN4800_N283861_sec_13.3 kV=0.24 kVA=1.92 irradiance=1 Pmpp=1.6 %cutin=0.1 %cutout=0.1
New PVSystem.PV_98 phases=1 bus1=G2100DN4800_N283861_sec_56.3 kV=0.24 kVA=1.68 irradiance=1 Pmpp=1.4 %cutin=0.1 %cutout=0.1
New PVSystem.PV_99 phases=1 bus1=G2100EK8800_N292347_sec_8.2 kV=0.24 kVA=6 irradiance=1 Pmpp=5 %cutin=0.1 %cutout=0.1
New PVSystem.PV_100 phases=1 bus1=G2100EM1500_N292428_sec_3.3 kV=0.24 kVA=2.88 irradiance=1 Pmpp=2.4 %cutin=0.1 %cutout=0.1
New PVSystem.PV_101 phases=1 bus1=G2100EN2200_N292457_sec_4.3 kV=0.24 kVA=1.32 irradiance=1 Pmpp=1.1 %cutin=0.1 %cutout=0.1
New PVSystem.PV_102 phases=3 conn = delta bus1=G2100FE2600_N292234_sec_10.1.2.3 kV=0.48 kVA=1.32 irradiance=1 Pmpp=1.1 %cutin=0.1 %cutout=0.1
New PVSystem.PV_103 phases=3 conn = delta bus1=G2100FE2600_N292234_sec_17.1.2.3 kV=0.48 kVA=14.64 irradiance=1 Pmpp=12.2 %cutin=0.1 %cutout=0.1
New PVSystem.PV_104 phases=1 bus1=G2100FK5800_N292373_sec_3.2 kV=0.24 kVA=10.44 irradiance=1 Pmpp=8.7 %cutin=0.1 %cutout=0.1
New PVSystem.PV_105 phases=3 conn = delta bus1=G2100GL2400_N292406_sec_1.1.2.3 kV=0.48 kVA=174 irradiance=1 Pmpp=145 %cutin=0.1 %cutout=0.1
New PVSystem.PV_106 phases=1 bus1=G2100GM9700_N292423_sec_19.3 kV=0.24 kVA=2.64 irradiance=1 Pmpp=2.2 %cutin=0.1 %cutout=0.1
New PVSystem.PV_107 phases=1 bus1=G2100GN4300_N292461_sec_6.1 kV=0.24 kVA=3.72 irradiance=1 Pmpp=3.1 %cutin=0.1 %cutout=0.1
New PVSystem.PV_108 phases=1 bus1=G2100GN8800_N292512_sec_1.1 kV=0.24 kVA=9.12 irradiance=1 Pmpp=7.6 %cutin=0.1 %cutout=0.1
New PVSystem.PV_109 phases=3 conn = delta bus1=G2100GO7200_N292517_sec_10.1.2.3 kV=0.48 kVA=28.92 irradiance=1 Pmpp=24.1 %cutin=0.1 %cutout=0.1
New PVSystem.PV_110 phases=1 bus1=G2100HM3200_N292420_sec_35.3 kV=0.24 kVA=2.4 irradiance=1 Pmpp=2 %cutin=0.1 %cutout=0.1
New PVSystem.PV_111 phases=1 bus1=G2100HM9900_N292433_sec_33.3 kV=0.24 kVA=0.96 irradiance=1 Pmpp=0.8 %cutin=0.1 %cutout=0.1
New PVSystem.PV_112 phases=1 bus1=G2100HN5600_N292453_sec_9.3 kV=0.24 kVA=1.56 irradiance=1 Pmpp=1.3 %cutin=0.1 %cutout=0.1
New PVSystem.PV_113 phases=1 bus1=G2100HN5600_N292453_sec_34.3 kV=0.24 kVA=1.2 irradiance=1 Pmpp=1 %cutin=0.1 %cutout=0.1
New PVSystem.PV_114 phases=1 bus1=G2100IM6700_N292430_sec_5.3 kV=0.24 kVA=4.8 irradiance=1 Pmpp=4 %cutin=0.1 %cutout=0.1
New PVSystem.PV_115 phases=1 bus1=G2100IM6700_N292430_sec_10.3 kV=0.24 kVA=3.24 irradiance=1 Pmpp=2.7 %cutin=0.1 %cutout=0.1
New PVSystem.PV_116 phases=1 bus1=G2100IM6700_N292430_sec_28.3 kV=0.24 kVA=1.44 irradiance=1 Pmpp=1.2 %cutin=0.1 %cutout=0.1
New PVSystem.PV_117 phases=1 bus1=G2100IN2700_N292475_sec_3.3 kV=0.24 kVA=2.76 irradiance=1 Pmpp=2.3 %cutin=0.1 %cutout=0.1
New PVSystem.PV_118 phases=1 bus1=G2100IN7700_N292438_sec_9.3 kV=0.24 kVA=2.4 irradiance=1 Pmpp=2 %cutin=0.1 %cutout=0.1
New PVSystem.PV_119 phases=1 bus1=G2100JP3100_N300601_sec_3.1 kV=0.24 kVA=10.08 irradiance=1 Pmpp=8.4 %cutin=0.1 %cutout=0.1
New PVSystem.PV_120 phases=1 bus1=G2100NM7500_N300513_sec_4.1 kV=0.24 kVA=5.4 irradiance=1 Pmpp=4.5 %cutin=0.1 %cutout=0.1
New PVSystem.PV_121 phases=1 bus1=G2100NM7500_N300513_sec_6.1 kV=0.24 kVA=3.72 irradiance=1 Pmpp=3.1 %cutin=0.1 %cutout=0.1
New PVSystem.PV_122 phases=1 bus1=G2100ON6900_N300568_sec_2.1 kV=0.24 kVA=5.5798 irradiance=1 Pmpp=4.6499 %cutin=0.1 %cutout=0.1
New PVSystem.PV_123 phases=1 bus1=G2100PO8100_N300593_sec_2.1 kV=0.24 kVA=6.96 irradiance=1 Pmpp=5.8 %cutin=0.1 %cutout=0.1
New PVSystem.PV_124 phases=1 bus1=G2100QO8900_N300587_sec_5.2 kV=0.24 kVA=6.48 irradiance=1 Pmpp=5.4 %cutin=0.1 %cutout=0.1
New PVSystem.PV_125 phases=1 bus1=G2100RN0300_N300550_sec_2.3 kV=0.24 kVA=4.2 irradiance=1 Pmpp=3.5 %cutin=0.1 %cutout=0.1
New PVSystem.PV_126 phases=1 bus1=G2100RN1800_N300557_sec_2.3 kV=0.24 kVA=2.76 irradiance=1 Pmpp=2.3 %cutin=0.1 %cutout=0.1
New PVSystem.PV_127 phases=1 bus1=G2101BB3500_N283890_sec_3.1 kV=0.24 kVA=8.3928 irradiance=1 Pmpp=6.994 %cutin=0.1 %cutout=0.1
New PVSystem.PV_128 phases=1 bus1=G2101DG9100_N292718_sec_1.2 kV=0.24 kVA=10.32 irradiance=1 Pmpp=8.6 %cutin=0.1 %cutout=0.1
New PVSystem.PV_129 phases=1 bus1=G2101ED9700_N292597_sec_4.1 kV=0.24 kVA=5.28 irradiance=1 Pmpp=4.4 %cutin=0.1 %cutout=0.1
New PVSystem.PV_130 phases=1 bus1=G2101EG7000_N292703_sec_1.2 kV=0.24 kVA=9.3383 irradiance=1 Pmpp=7.7819 %cutin=0.1 %cutout=0.1
New PVSystem.PV_131 phases=1 bus1=G2101EM6600_N292838_sec_1.2 kV=0.24 kVA=18.12 irradiance=1 Pmpp=15.1 %cutin=0.1 %cutout=0.1
New PVSystem.PV_132 phases=1 bus1=G2101FK7100_N292792_sec_5.2 kV=0.24 kVA=11.64 irradiance=1 Pmpp=9.7 %cutin=0.1 %cutout=0.1
New PVSystem.PV_133 phases=1 bus1=G2101GC3400_N292625_sec_12.1 kV=0.24 kVA=2.88 irradiance=1 Pmpp=2.4 %cutin=0.1 %cutout=0.1
New PVSystem.PV_134 phases=1 bus1=G2101GD5100_N292637_sec_8.1 kV=0.24 kVA=2.16 irradiance=1 Pmpp=1.8 %cutin=0.1 %cutout=0.1
New PVSystem.PV_135 phases=1 bus1=G2101GD5100_N292637_sec_11.1 kV=0.24 kVA=1.44 irradiance=1 Pmpp=1.2 %cutin=0.1 %cutout=0.1
New PVSystem.PV_136 phases=1 bus1=G2101GJ5200_N292778_sec_3.2 kV=0.24 kVA=11.04 irradiance=1 Pmpp=9.2 %cutin=0.1 %cutout=0.1
New PVSystem.PV_137 phases=1 bus1=G2101GN5000_N292870_sec_2.2 kV=0.24 kVA=3.84 irradiance=1 Pmpp=3.2 %cutin=0.1 %cutout=0.1
New PVSystem.PV_138 phases=1 bus1=G2101HB3500_N292585_sec_12.1 kV=0.24 kVA=3.6 irradiance=1 Pmpp=3 %cutin=0.1 %cutout=0.1
New PVSystem.PV_139 phases=1 bus1=G2101HB7500_N292585_sec_5.1 kV=0.24 kVA=0.48 irradiance=1 Pmpp=0.4 %cutin=0.1 %cutout=0.1
New PVSystem.PV_140 phases=1 bus1=G2101HD1100_N292645_sec_18.1 kV=0.24 kVA=3.24 irradiance=1 Pmpp=2.7 %cutin=0.1 %cutout=0.1
New PVSystem.PV_141 phases=3 conn = delta bus1=G2101JA6700_N1321243_sec_4.1.2.3 kV=0.48 kVA=12 irradiance=1 Pmpp=10 %cutin=0.1 %cutout=0.1
New PVSystem.PV_142 phases=1 bus1=G2101KA0900_N300672_sec_6.1 kV=0.24 kVA=3.24 irradiance=1 Pmpp=2.7 %cutin=0.1 %cutout=0.1
New PVSystem.PV_143 phases=1 bus1=G2101KA0900_N300672_sec_9.1 kV=0.24 kVA=4.2 irradiance=1 Pmpp=3.5 %cutin=0.1 %cutout=0.1
New PVSystem.PV_144 phases=1 bus1=G2101KA3900_N300679_sec_15.1 kV=0.24 kVA=1.92 irradiance=1 Pmpp=1.6 %cutin=0.1 %cutout=0.1
New PVSystem.PV_145 phases=1 bus1=G2101KA6200_N300623_sec_1.1 kV=0.24 kVA=4.32 irradiance=1 Pmpp=3.6 %cutin=0.1 %cutout=0.1
New PVSystem.PV_146 phases=1 bus1=G2101OA2300_N300690_sec_6.3 kV=0.24 kVA=3 irradiance=1 Pmpp=2.5 %cutin=0.1 %cutout=0.1
New PVSystem.PV_147 phases=1 bus1=G2101OB6500_N300721_sec_4.3 kV=0.24 kVA=2.88 irradiance=1 Pmpp=2.4 %cutin=0.1 %cutout=0.1
New PVSystem.PV_148 phases=1 bus1=G2101OB6900_N300737_sec_4.3 kV=0.24 kVA=3.36 irradiance=1 Pmpp=2.8 %cutin=0.1 %cutout=0.1
New PVSystem.PV_149 phases=1 bus1=G2101QB0400_N300714_sec_4.3 kV=0.24 kVA=5.4 irradiance=1 Pmpp=4.5 %cutin=0.1 %cutout=0.1
New PVSystem.PV_150 phases=1 bus1=G2101RA8200_N312510_sec_4.3 kV=0.24 kVA=3 irradiance=1 Pmpp=2.5 %cutin=0.1 %cutout=0.1
New PVSystem.PV_151 phases=1 bus1=G2101TA3200_N312486_sec_6.2 kV=0.24 kVA=10.44 irradiance=1 Pmpp=8.7 %cutin=0.1 %cutout=0.1
New PVSystem.PV_152 phases=1 bus1=G2101UB2800_N312558_sec_7.2 kV=0.24 kVA=10.2 irradiance=1 Pmpp=8.5 %cutin=0.1 %cutout=0.1
New PVSystem.PV_153 phases=1 bus1=G2102AC6800_N284336_sec_3.1 kV=0.24 kVA=12.72 irradiance=1 Pmpp=10.6 %cutin=0.1 %cutout=0.1
New PVSystem.PV_154 phases=1 bus1=G2102AC8400_N284339_sec_1.1 kV=0.24 kVA=9.12 irradiance=1 Pmpp=7.6 %cutin=0.1 %cutout=0.1
New PVSystem.PV_155 phases=1 bus1=G2102BF5100_N284387_sec_2.1 kV=0.24 kVA=8.5757 irradiance=1 Pmpp=7.1464 %cutin=0.1 %cutout=0.1
New PVSystem.PV_156 phases=1 bus1=G2000SO1800_N274227_sec_2.3 kV=0.24 kVA=5.64 irradiance=1 Pmpp=4.7 %cutin=0.1 %cutout=0.1
New PVSystem.PV_157 phases=1 bus1=G2000UJ0800_N283722_sec_2.3 kV=0.24 kVA=1.92 irradiance=1 Pmpp=1.6 %cutin=0.1 %cutout=0.1
New PVSystem.PV_158 phases=1 bus1=G2000UO1100_N283873_sec_2.3 kV=0.24 kVA=6.72 irradiance=1 Pmpp=5.6 %cutin=0.1 %cutout=0.1
New PVSystem.PV_159 phases=1 bus1=G2000VI6200_N283684_sec_6.2 kV=0.24 kVA=11.88 irradiance=1 Pmpp=9.9 %cutin=0.1 %cutout=0.1
New PVSystem.PV_160 phases=1 bus1=G2000XH4800_N283608_sec_2.2 kV=0.24 kVA=2.16 irradiance=1 Pmpp=1.8 %cutin=0.1 %cutout=0.1
New PVSystem.PV_161 phases=1 bus1=G2000XO7000_N283918_sec_3.3 kV=0.24 kVA=5.88 irradiance=1 Pmpp=4.9 %cutin=0.1 %cutout=0.1
New PVSystem.PV_162 phases=1 bus1=G2000YM2700_N283830_sec_3.1 kV=0.24 kVA=3.6 irradiance=1 Pmpp=3 %cutin=0.1 %cutout=0.1
New PVSystem.PV_163 phases=1 bus1=G2001RJ9700_N274469_sec_3.2 kV=0.24 kVA=5.76 irradiance=1 Pmpp=4.8 %cutin=0.1 %cutout=0.1
New PVSystem.PV_164 phases=1 bus1=G2001RL0800_N274521_sec_1.2 kV=0.24 kVA=7.4531 irradiance=1 Pmpp=6.2109 %cutin=0.1 %cutout=0.1
New PVSystem.PV_165 phases=1 bus1=G2001RL0800_N274521_sec_2.2 kV=0.24 kVA=1.8 irradiance=1 Pmpp=1.5 %cutin=0.1 %cutout=0.1
New PVSystem.PV_166 phases=1 bus1=G2001TC6700_N274291_sec_2.3 kV=0.24 kVA=2.76 irradiance=1 Pmpp=2.3 %cutin=0.1 %cutout=0.1
New PVSystem.PV_167 phases=1 bus1=G2001TI4000_N284133_sec_2.2 kV=0.24 kVA=6.3213 irradiance=1 Pmpp=5.2678 %cutin=0.1 %cutout=0.1
New PVSystem.PV_168 phases=1 bus1=G2001UB2100_N283965_sec_10.3 kV=0.24 kVA=5.76 irradiance=1 Pmpp=4.8 %cutin=0.1 %cutout=0.1
New PVSystem.PV_169 phases=1 bus1=G2001VI5200_N284181_sec_1.2 kV=0.24 kVA=11.4455 irradiance=1 Pmpp=9.5379 %cutin=0.1 %cutout=0.1
New PVSystem.PV_170 phases=1 bus1=G2001VK4000_N284221_sec_2.2 kV=0.24 kVA=9.7672 irradiance=1 Pmpp=8.1394 %cutin=0.1 %cutout=0.1
New PVSystem.PV_171 phases=1 bus1=G2001WC3900_N284043_sec_5.3 kV=0.24 kVA=6.96 irradiance=1 Pmpp=5.8 %cutin=0.1 %cutout=0.1
New PVSystem.PV_172 phases=1 bus1=G2001WE0200_N284057_sec_3.3 kV=0.24 kVA=5.88 irradiance=1 Pmpp=4.9 %cutin=0.1 %cutout=0.1
New PVSystem.PV_173 phases=1 bus1=G2001WI7900_N284195_sec_1.3 kV=0.24 kVA=4.2 irradiance=1 Pmpp=3.5 %cutin=0.1 %cutout=0.1
New PVSystem.PV_174 phases=1 bus1=G2001WL3500_N284250_sec_3.2 kV=0.24 kVA=8.2356 irradiance=1 Pmpp=6.863 %cutin=0.1 %cutout=0.1
New PVSystem.PV_175 phases=1 bus1=G2001XE2600_N284069_sec_4.1 kV=0.24 kVA=6.12 irradiance=1 Pmpp=5.1 %cutin=0.1 %cutout=0.1
New PVSystem.PV_176 phases=1 bus1=G2100AE9900_N283556_sec_4.3 kV=0.24 kVA=3.36 irradiance=1 Pmpp=2.8 %cutin=0.1 %cutout=0.1
New PVSystem.PV_177 phases=1 bus1=G2100AH6800_N283651_sec_7.3 kV=0.24 kVA=3.24 irradiance=1 Pmpp=2.7 %cutin=0.1 %cutout=0.1
New PVSystem.PV_178 phases=1 bus1=G2100AM2200_N283815_sec_3.1 kV=0.24 kVA=8.64 irradiance=1 Pmpp=7.2 %cutin=0.1 %cutout=0.1
New PVSystem.PV_179 phases=1 bus1=G2100BJ0700_N283696_sec_8.2 kV=0.24 kVA=6.24 irradiance=1 Pmpp=5.2 %cutin=0.1 %cutout=0.1
New PVSystem.PV_180 phases=1 bus1=G2100BL8300_N283778_sec_1.1 kV=0.24 kVA=5.9691 irradiance=1 Pmpp=4.9743 %cutin=0.1 %cutout=0.1
New PVSystem.PV_181 phases=1 bus1=G2100BL8300_N283778_sec_3.1 kV=0.24 kVA=4.56 irradiance=1 Pmpp=3.8 %cutin=0.1 %cutout=0.1
New PVSystem.PV_182 phases=1 bus1=G2100CM8800_N283828_sec_1.3 kV=0.24 kVA=4.92 irradiance=1 Pmpp=4.1 %cutin=0.1 %cutout=0.1
New PVSystem.PV_183 phases=1 bus1=G2100CN4900_N283858_sec_4.3 kV=0.24 kVA=3.12 irradiance=1 Pmpp=2.6 %cutin=0.1 %cutout=0.1
New PVSystem.PV_184 phases=1 bus1=G2100CN5000_N283837_sec_1.3 kV=0.24 kVA=5.16 irradiance=1 Pmpp=4.3 %cutin=0.1 %cutout=0.1
New PVSystem.PV_185 phases=1 bus1=G2100CO8200_N283869_sec_8.3 kV=0.24 kVA=2.76 irradiance=1 Pmpp=2.3 %cutin=0.1 %cutout=0.1
New PVSystem.PV_186 phases=1 bus1=G2100DL9800_N283744_sec_2.2 kV=0.24 kVA=6.36 irradiance=1 Pmpp=5.3 %cutin=0.1 %cutout=0.1
New PVSystem.PV_187 phases=1 bus1=G2100DL9800_N283744_sec_4.2 kV=0.24 kVA=4.44 irradiance=1 Pmpp=3.7 %cutin=0.1 %cutout=0.1
New PVSystem.PV_188 phases=1 bus1=G2100DN3000_N283838_sec_15.3 kV=0.24 kVA=1.2 irradiance=1 Pmpp=1 %cutin=0.1 %cutout=0.1
New PVSystem.PV_189 phases=1 bus1=G2100DN3000_N283838_sec_16.3 kV=0.24 kVA=1.68 irradiance=1 Pmpp=1.4 %cutin=0.1 %cutout=0.1
New PVSystem.PV_190 phases=1 bus1=G2100EK1100_N292334_sec_5.2 kV=0.24 kVA=6.7918 irradiance=1 Pmpp=5.6598 %cutin=0.1 %cutout=0.1
New PVSystem.PV_191 phases=1 bus1=G2100EK8800_N292347_sec_12.2 kV=0.24 kVA=5.16 irradiance=1 Pmpp=4.3 %cutin=0.1 %cutout=0.1
New PVSystem.PV_192 phases=1 bus1=G2100EM6500_N292425_sec_1.3 kV=0.24 kVA=5.88 irradiance=1 Pmpp=4.9 %cutin=0.1 %cutout=0.1
New PVSystem.PV_193 phases=1 bus1=G2100EN8600_N292479_sec_5.3 kV=0.24 kVA=2.16 irradiance=1 Pmpp=1.8 %cutin=0.1 %cutout=0.1
New PVSystem.PV_194 phases=3 conn = delta bus1=G2100FE2600_N292234_sec_16.1.2.3 kV=0.48 kVA=22.56 irradiance=1 Pmpp=18.8 %cutin=0.1 %cutout=0.1
New PVSystem.PV_195 phases=3 conn = delta bus1=G2100FO5600_N292520_sec_5.1.2.3 kV=0.48 kVA=31.56 irradiance=1 Pmpp=26.3 %cutin=0.1 %cutout=0.1
New PVSystem.PV_196 phases=1 bus1=G2100GO6100_N292504_sec_9.1 kV=0.24 kVA=2.7922 irradiance=1 Pmpp=2.3268 %cutin=0.1 %cutout=0.1
New PVSystem.PV_197 phases=1 bus1=G2100HN5600_N292453_sec_4.3 kV=0.24 kVA=3 irradiance=1 Pmpp=2.5 %cutin=0.1 %cutout=0.1
New PVSystem.PV_198 phases=1 bus1=G2100HN5600_N292453_sec_6.3 kV=0.24 kVA=2.16 irradiance=1 Pmpp=1.8 %cutin=0.1 %cutout=0.1
New PVSystem.PV_199 phases=1 bus1=G2100HN5600_N292453_sec_18.3 kV=0.24 kVA=3.24 irradiance=1 Pmpp=2.7 %cutin=0.1 %cutout=0.1
New PVSystem.PV_200 phases=1 bus1=G2100HN5600_N292453_sec_19.3 kV=0.24 kVA=0.36 irradiance=1 Pmpp=0.3 %cutin=0.1 %cutout=0.1
...
